4
Lattice="5 0 0 0 5 0 0 0 5"
Mg 0 0 0
Mg 2.5 2.5 0
Mg 2.5 0 2.5
Mg 0 2.5 2.5
1
Lattice="4 0 0 0 4 0 0 0 4"
Al 2 0 2
2
Lattice="4 0 0 0 4 0 0 0 4"
Al 0 0 0
Mg 2 2 2
4
Lattice="5 0 0 0 5 0 0 0 5"
Al 0 0 0
Mg 2.5 2.5 0
Mg 2.5 0 2.5
Mg 0 2.5 2.5
8
Lattice="8 0 0 0 8 0 0 0 8"
Al 0 0 0 
Mg 2 2 2
Al 4 4 0
Mg 6 6 2 
Al 4 0 4
Mg 6 2 6
Al 0 4 4 
Mg 2 6 6
2
Lattice="4 0 0 0 4 0 0 0 4"
Mg 0 0 0
Mg 2 2 2
2 
Lattice="2 2 0 2 -2 0 0 0 4"
Al 0 0 0
Al 2 0 2
1 
Lattice="2 2 0 2 0 2 0 2 2"
Al 0 0 0 
4
Lattice="4 0 0 0 4 0 0 0 4"
Al 0 0 0 
Al 2 2 0
Al 2 0 2 
Al 0 2 2 
